-- Copyright (C) 2023-2025, NORCE Research AS

----------------------------------------------------------------------------
RUNSPEC
----------------------------------------------------------------------------
DIMENS 
100 1 50 /


EQLDIMS
/

TABDIMS
1 1* 10000 /

OIL
GAS
H2STORE

METRIC

START
1 'JAN' 2000 /


WELLDIMS
6 50 6 6 /

UNIFIN
UNIFOUT
----------------------------------------------------------------------------
GRID
----------------------------------------------------------------------------
INIT

INCLUDE
  'CAKE.INC' /

EQUALS
PERMX  1013.25 1* 1* 1* 1* 1 50 /
/

EQUALS
PERMZ  101.325 1* 1* 1* 1* 1 50 /
/

COPY 
PERMX PERMY /
/

EQUALS
PORO  0.25 1* 1* 1* 1* 1 50 /
/

----------------------------------------------------------------------------
EDIT
----------------------------------------------------------------------------
BOX
100 100 1 1 1* 1* / 
MULTPV
50*2000000000.0 /
ENDBOX


----------------------------------------------------------------------------
PROPS
----------------------------------------------------------------------------

INCLUDE
'TABLES.INC' /


----------------------------------------------------------------------------
REGIONS
----------------------------------------------------------------------------

EQUALS
SATNUM  1 1* 1* 1* 1* 1 50 /
/


----------------------------------------------------------------------------
SOLUTION
---------------------------------------------------------------------------
EQUIL
 0 40.0 50.0 0 0 0 1 1 0 /
--PRESSURE
--% for i in range(dic['noCells'][2]):
--	100*40.0
--% endfor
--/
--SGAS
--	5000*0.0 /
RTEMPVD
0   50.0
50.0 50.0 /
RVVD
0   0.0
50.0 0.0 /
RV
5000*0.0 /


RPTRST 
 'BASIC=2' FLOWS FLORES DEN VISC /

----------------------------------------------------------------------------
SUMMARY
----------------------------------------------------------------------------

CGIR
 INJ0 /
 PRO0 /
/

CGIRL
 INJ0 /
 PRO0 /
/

WGIRL
 'INJ0'  1  /
 'PRO0'  1  /
/

CGIT
 INJ0 /
 PRO0 /
/

CGITL
 INJ0 /
 PRO0 /
/

WGITL
 'INJ0'  1  /
 'PRO0'  1  /
/

FPR 

FGIP

FOIP

FGIR

FOIR

FGIT

FGPT

FOIT

WGIR
/

WGPR
/

WGIT
/

WGPT
/

WBHP
/

RPR
/

ROIP
/

RGIP
/

WOPR
/


----------------------------------------------------------------------------
SCHEDULE
----------------------------------------------------------------------------
RPTRST
 'BASIC=2' FLOWS FLORES DEN VISC /

WELSPECS
'INJ0'	'G1'	1 1	1*	'GAS' 2* 'STOP' /
'PRO0'	'G1'	1 1	1*	'GAS' 2* 'STOP' /
/
COMPDAT
'INJ0'	1	1	1	1	'OPEN'	1*	1*	0.3 /
'PRO0'	1 1	1	1	'OPEN' 1*	1*	0.3 /
/
TUNING
1e-2 1.0 1e-10 2* 1e-12/
/
/
WCONINJE
'INJ0' 'GAS' OPEN
'RATE'  1.175921E+05  1* 400/
/
WCONPROD
'PRO0' SHUT 'GRAT' 2*  1.175921E+05 2* /
/
WECON
'PRO0' 1*  1.117125E+05 /
/
TSTEP
${time}
/
TUNING
1e-2 1.0 1e-10 2* 1e-12/
/
/
WCONINJE
'INJ0' 'GAS' SHUT
'RATE' -2.351843E+05  1* 400/
/
WCONPROD
'PRO0' OPEN 'GRAT' 2*  2.351843E+05 2* /
/
WECON
'PRO0' 1*  2.234251E+05 /
/
TSTEP
30
/
